#
# Generated by PyRED version JAN-2019
#     http://q4md-forcefieldtools.org
#
@<TRIPOS>MOLECULE
UNL
    10     9     1     0     1
SMALL
USER_CHARGES
@<TRIPOS>ATOM
   1 C1    -1.288219  -0.607660   0.000000 CT   1   UNL -0.2899  0.0000 ****
   2 H1    -1.335525  -1.250367  -0.874420 HC   1   UNL  0.0762  0.0000 ****
   3 H2    -1.335518  -1.250379   0.874411 HC   1   UNL  0.0762  0.0000 ****
   4 H3    -2.133752   0.065911   0.000008 HC   1   UNL  0.0762  0.0000 ****
   5 C2     0.000001   0.187496   0.000000 C    1   UNL  0.6798  0.0000 ****
   6 O      0.000002   1.379580   0.000000 O    1   UNL -0.5572  0.0000 ****
   7 C      1.288217  -0.607663  -0.000000 CT   1   UNL -0.2899  0.0000 ****
   8 H4     1.335516  -1.250377  -0.874415 HC   1   UNL  0.0762  0.0000 ****
   9 H5     2.133754   0.065904  -0.000001 HC   1   UNL  0.0762  0.0000 ****
  10 H      1.335517  -1.250376   0.874416 HC   1   UNL  0.0762  0.0000 ****
@<TRIPOS>BOND
    1     1     2 1
    2     1     3 1
    3     1     4 1
    4     1     5 1
    5     5     6 1
    6     5     7 1
    7     7     8 1
    8     7     9 1
    9     7    10 1
@<TRIPOS>SUBSTRUCTURE
      1 UNL               1 ****               0 ****  ****
@<TRIPOS>HEADTAIL
0 0
0 0
@<TRIPOS>RESIDUECONNECT
1 0 0 0 0 0 0
