@<TRIPOS>MOLECULE
*****
 15 14 0 0 0
SMALL
GASTEIGER

@<TRIPOS>ATOM
      1 O           5.1578   -5.9881    1.1612 O.2     1  UNL1       -0.1468
      2 F           8.6756   -4.8911   -0.0096 F       1  UNL1       -0.1492
      3 C           7.7538   -5.6757    0.6130 C.3     1  UNL1        0.5387
      4 S           6.0648   -4.9673    0.5427 S.O2    1  UNL1        0.1638
      5 O           5.8407   -4.5367   -0.8526 O.2     1  UNL1       -0.1468
      6 F           7.8187   -6.8715   -0.0162 F       1  UNL1       -0.1492
      7 N           5.7132   -3.5286    1.5284 N.3     1  UNL1        0.0775
      8 O           7.5020   -2.4587    0.2901 O.2     1  UNL1       -0.1468
      9 F           8.1787   -5.9224    1.8179 F       1  UNL1       -0.1492
     10 S           6.7880   -2.2958    1.5682 S.O2    1  UNL1        0.1638
     11 O           5.9770   -1.0771    1.7762 O.2     1  UNL1       -0.1468
     12 F           8.8545   -3.4527    2.8755 F       1  UNL1       -0.1492
     13 F           7.5366   -2.1789    4.0551 F       1  UNL1       -0.1492
     14 C           8.0502   -2.3623    2.8513 C.3     1  UNL1        0.5387
     15 F           8.9218   -1.3402    2.7142 F       1  UNL1       -0.1492
@<TRIPOS>BOND
     1     5     4    2
     2     6     3    1
     3     2     3    1
     4     8    10    2
     5     4     3    1
     6     4     1    2
     7     4     7    1
     8     3     9    1
     9     7    10    1
    10    10    11    2
    11    10    14    1
    12    15    14    1
    13    14    12    1
    14    14    13    1
