@<TRIPOS>MOLECULE
*****
 6 5 0 0 0
SMALL
GASTEIGER

@<TRIPOS>ATOM
      1 C          -4.5320    1.8860    0.0000 C.3     1  UNL1        0.0232
      2 C          -3.3720    0.9940   -0.0000 C.1     1  UNL1        0.0591
      3 N          -2.4550    0.2880   -0.0000 N.1     1  UNL1       -0.1969
      4 H          -5.1640    1.6720    0.8860 H       1  UNL1        0.0382
      5 H          -5.1240    1.7240   -0.9240 H       1  UNL1        0.0382
      6 H          -4.1880    2.9400    0.0380 H       1  UNL1        0.0382
@<TRIPOS>BOND
     1     1     2    1
     2     1     4    1
     3     1     5    1
     4     1     6    1
     5     2     3    3
