@<TRIPOS>MOLECULE
*****
 3 2 0 0 0
SMALL
GASTEIGER

@<TRIPOS>ATOM
      1 O           1.6907   -0.2102    1.0941 O.3     1  HOH1       -0.4105
      2 H           2.5509   -0.6162    0.6124 H       0  HOH0        0.2052
      3 H           2.0566    0.0806    2.0166 H       0  HOH0        0.2052
@<TRIPOS>BOND
     1     2     1    1
     2     1     3    1
