#
# Generated by PyRED version JAN-2019
#     http://q4md-forcefieldtools.org
#
@<TRIPOS>MOLECULE
UNL
    15    14     1     0     1
SMALL
USER_CHARGES
@<TRIPOS>ATOM
   1 C1    -2.262259   0.743900   0.187125 CT   1   UNL  0.1809  0.0000 ****
   2 F1    -3.551370   0.500884   0.324865 F    1   UNL -0.1040  0.0000 ****
   3 F2    -1.791919   1.127081   1.349342 F    1   UNL -0.1040  0.0000 ****
   4 F3    -2.126270   1.738799  -0.662617 F    1   UNL -0.1040  0.0000 ****
   5 S1    -1.425034  -0.754185  -0.417716 S    1   UNL  1.0947  0.0000 ****
   6 O1    -1.640140  -1.722917   0.615655 O    1   UNL -0.5559  0.0000 ****
   7 O2    -2.023667  -0.963731  -1.699271 O    1   UNL -0.5559  0.0000 ****
   8 N      0.065319  -0.293905  -0.583335 N*   1   UNL -0.7036  0.0000 ****
   9 S      1.233571  -0.576038   0.441584 S    1   UNL  1.0947  0.0000 ****
  10 O3     1.820029  -1.877211   0.320884 O    1   UNL -0.5559  0.0000 ****
  11 O      1.022876  -0.058347   1.761656 O    1   UNL -0.5559  0.0000 ****
  12 C      2.457378   0.543766  -0.299171 CT   1   UNL  0.1809  0.0000 ****
  13 F4     2.045802   1.790734  -0.288248 F    1   UNL -0.1040  0.0000 ****
  14 F5     3.567709   0.476383   0.409739 F    1   UNL -0.1040  0.0000 ****
  15 F      2.745235   0.209736  -1.535043 F    1   UNL -0.1040  0.0000 ****
@<TRIPOS>BOND
    1     1     2 1
    2     1     3 1
    3     1     4 1
    4     1     5 1
    5     5     6 1
    6     5     7 1
    7     5     8 1
    8     8     9 1
    9     9    10 1
   10     9    11 1
   11     9    12 1
   12    12    13 1
   13    12    14 1
   14    12    15 1
@<TRIPOS>SUBSTRUCTURE
      1 UNL               1 ****               0 ****  ****
@<TRIPOS>HEADTAIL
0 0
0 0
@<TRIPOS>RESIDUECONNECT
1 0 0 0 0 0 0
